MODEL        2
REMARK  Name = 5202
REMARK  4 active torsions:
REMARK  status: ('A' for Active; 'I' for Inactive)
REMARK    1  A    between atoms: O_1  and  C_9
REMARK    2  A    between atoms: C_3  and  C_13
REMARK    3  A    between atoms: C_13  and  C_15
REMARK    4  A    between atoms: N_14  and  C_15
REMARK                            x       y       z     vdW  Elec       q    Type
REMARK                         _______ _______ _______ _____ _____    ______ ____
ROOT
ATOM      1  N   UNL     1      14.440  10.048  11.977  0.00  0.00    +0.000 N 
ATOM      2  C   UNL     1      13.893  11.008  10.806  0.00  0.00    +0.000 A 
ATOM      3  C   UNL     1      13.585  11.380  11.675  0.00  0.00    +0.000 A 
ATOM      4  C   UNL     1      13.924  10.784  12.402  0.00  0.00    +0.000 A 
ATOM      5  C   UNL     1      14.421  10.186  10.993  0.00  0.00    +0.000 A 
ATOM      6  C   UNL     1      13.037  12.186  11.903  0.00  0.00    +0.000 A 
ATOM      7  C   UNL     1      13.717  10.994  13.358  0.00  0.00    +0.000 A 
ATOM      8  C   UNL     1      12.830  12.395  12.859  0.00  0.00    +0.000 A 
ATOM      9  C   UNL     1      13.170  11.799  13.586  0.00  0.00    +0.000 A 
ATOM     10  H   UNL     1      14.724   9.584  12.274  0.00  0.00    +0.000 HD
ENDROOT
BRANCH   8  11
ATOM     11  O   UNL     1      12.283  13.201  13.087  0.00  0.00    +0.000 OA
ATOM     12  H   UNL     1      12.155  13.331  13.679  0.00  0.00    +0.000 HD
ENDBRANCH   8  11
BRANCH   2  13
ATOM     13  C   UNL     1      13.705  11.392   9.903  0.00  0.00    +0.000 C 
BRANCH  13  14
ATOM     14  C   UNL     1      14.024  10.919   9.082  0.00  0.00    +0.000 C 
BRANCH  14  15
ATOM     15  N   UNL     1      13.956  11.364   8.189  0.00  0.00    +0.000 NA
ATOM     16  H   UNL     1      14.153  11.071   7.680  0.00  0.00    +0.000 HD
ATOM     17  H   UNL     1      13.715  11.934   8.145  0.00  0.00    +0.000 HD
ENDBRANCH  14  15
ENDBRANCH  13  14
ENDBRANCH   2  13
TORSDOF 4
ENDMDL
MODEL        3
REMARK  Name = 5202
REMARK  4 active torsions:
REMARK  status: ('A' for Active; 'I' for Inactive)
REMARK    1  A    between atoms: O_1  and  C_9
REMARK    2  A    between atoms: C_3  and  C_13
REMARK    3  A    between atoms: C_13  and  C_15
REMARK    4  A    between atoms: N_14  and  C_15
REMARK                            x       y       z     vdW  Elec       q    Type
REMARK                         _______ _______ _______ _____ _____    ______ ____
ROOT
ATOM      1  N   UNL     1      13.985  10.298  11.921  0.00  0.00    +0.000 N 
ATOM      2  C   UNL     1      13.307  11.698  11.508  0.00  0.00    +0.000 A 
ATOM      3  C   UNL     1      13.651  11.270  10.680  0.00  0.00    +0.000 A 
ATOM      4  C   UNL     1      14.072  10.400  10.937  0.00  0.00    +0.000 A 
ATOM      5  C   UNL     1      13.513  11.099  12.274  0.00  0.00    +0.000 A 
ATOM      6  C   UNL     1      13.638  11.556   9.722  0.00  0.00    +0.000 A 
ATOM      7  C   UNL     1      14.480   9.816  10.235  0.00  0.00    +0.000 A 
ATOM      8  C   UNL     1      14.046  10.972   9.020  0.00  0.00    +0.000 A 
ATOM      9  C   UNL     1      14.466  10.101   9.277  0.00  0.00    +0.000 A 
ATOM     10  H   UNL     1      14.189   9.818  12.257  0.00  0.00    +0.000 HD
ENDROOT
BRANCH   8  11
ATOM     11  O   UNL     1      14.032  11.257   8.062  0.00  0.00    +0.000 OA
ATOM     12  H   UNL     1      14.285  10.895   7.627  0.00  0.00    +0.000 HD
ENDBRANCH   8  11
BRANCH   2  13
ATOM     13  C   UNL     1      12.836  12.579  11.562  0.00  0.00    +0.000 C 
BRANCH  13  14
ATOM     14  C   UNL     1      12.814  13.082  12.426  0.00  0.00    +0.000 C 
BRANCH  14  15
ATOM     15  N   UNL     1      12.770  14.081  12.422  0.00  0.00    +0.000 NA
ATOM     16  H   UNL     1      12.756  14.393  12.958  0.00  0.00    +0.000 HD
ATOM     17  H   UNL     1      12.757  14.389  11.884  0.00  0.00    +0.000 HD
ENDBRANCH  14  15
ENDBRANCH  13  14
ENDBRANCH   2  13
TORSDOF 4
ENDMDL
MODEL        4
REMARK  Name = 5202
REMARK  4 active torsions:
REMARK  status: ('A' for Active; 'I' for Inactive)
REMARK    1  A    between atoms: O_1  and  C_9
REMARK    2  A    between atoms: C_3  and  C_13
REMARK    3  A    between atoms: C_13  and  C_15
REMARK    4  A    between atoms: N_14  and  C_15
REMARK                            x       y       z     vdW  Elec       q    Type
REMARK                         _______ _______ _______ _____ _____    ______ ____
ROOT
ATOM      1  N   UNL     1      14.009  10.580   8.309  0.00  0.00    +0.000 N 
ATOM      2  C   UNL     1      13.706  11.431   9.641  0.00  0.00    +0.000 A 
ATOM      3  C   UNL     1      14.135  10.578   9.916  0.00  0.00    +0.000 A 
ATOM      4  C   UNL     1      14.324  10.049   9.089  0.00  0.00    +0.000 A 
ATOM      5  C   UNL     1      13.628  11.432   8.650  0.00  0.00    +0.000 A 
ATOM      6  C   UNL     1      14.381  10.209  10.813  0.00  0.00    +0.000 A 
ATOM      7  C   UNL     1      14.759   9.151   9.158  0.00  0.00    +0.000 A 
ATOM      8  C   UNL     1      14.816   9.312  10.882  0.00  0.00    +0.000 A 
ATOM      9  C   UNL     1      15.005   8.783  10.054  0.00  0.00    +0.000 A 
ATOM     10  H   UNL     1      14.045  10.409   7.715  0.00  0.00    +0.000 HD
ENDROOT
BRANCH   8  11
ATOM     11  O   UNL     1      15.062   8.943  11.778  0.00  0.00    +0.000 OA
ATOM     12  H   UNL     1      15.332   8.386  11.821  0.00  0.00    +0.000 HD
ENDBRANCH   8  11
BRANCH   2  13
ATOM     13  C   UNL     1      13.404  12.161  10.254  0.00  0.00    +0.000 C 
BRANCH  13  14
ATOM     14  C   UNL     1      13.281  13.090   9.904  0.00  0.00    +0.000 C 
BRANCH  14  15
ATOM     15  N   UNL     1      13.638  13.870  10.418  0.00  0.00    +0.000 NA
ATOM     16  H   UNL     1      13.562  14.445  10.201  0.00  0.00    +0.000 HD
ATOM     17  H   UNL     1      13.936  13.777  10.954  0.00  0.00    +0.000 HD
ENDBRANCH  14  15
ENDBRANCH  13  14
ENDBRANCH   2  13
TORSDOF 4
ENDMDL
MODEL        5
REMARK  Name = 5202
REMARK  4 active torsions:
REMARK  status: ('A' for Active; 'I' for Inactive)
REMARK    1  A    between atoms: O_1  and  C_9
REMARK    2  A    between atoms: C_3  and  C_13
REMARK    3  A    between atoms: C_13  and  C_15
REMARK    4  A    between atoms: N_14  and  C_15
REMARK                            x       y       z     vdW  Elec       q    Type
REMARK                         _______ _______ _______ _____ _____    ______ ____
ROOT
ATOM      1  N   UNL     1      12.956  12.908  11.724  0.00  0.00    +0.000 N 
ATOM      2  C   UNL     1      13.495  11.748  10.748  0.00  0.00    +0.000 A 
ATOM      3  C   UNL     1      13.564  11.416  11.682  0.00  0.00    +0.000 A 
ATOM      4  C   UNL     1      13.229  12.137  12.289  0.00  0.00    +0.000 A 
ATOM      5  C   UNL     1      13.120  12.668  10.774  0.00  0.00    +0.000 A 
ATOM      6  C   UNL     1      13.888  10.551  12.065  0.00  0.00    +0.000 A 
ATOM      7  C   UNL     1      13.217  11.992  13.278  0.00  0.00    +0.000 A 
ATOM      8  C   UNL     1      13.877  10.406  13.054  0.00  0.00    +0.000 A 
ATOM      9  C   UNL     1      13.541  11.127  13.661  0.00  0.00    +0.000 A 
ATOM     10  H   UNL     1      12.723  13.445  11.930  0.00  0.00    +0.000 HD
ENDROOT
BRANCH   8  11
ATOM     11  O   UNL     1      14.200   9.541  13.437  0.00  0.00    +0.000 OA
ATOM     12  H   UNL     1      14.194   9.451  14.050  0.00  0.00    +0.000 HD
ENDBRANCH   8  11
BRANCH   2  13
ATOM     13  C   UNL     1      13.757  11.244   9.925  0.00  0.00    +0.000 C 
BRANCH  13  14
ATOM     14  C   UNL     1      13.518  11.601   9.022  0.00  0.00    +0.000 C 
BRANCH  14  15
ATOM     15  N   UNL     1      13.968  11.239   8.206  0.00  0.00    +0.000 NA
ATOM     16  H   UNL     1      13.819  11.461   7.646  0.00  0.00    +0.000 HD
ATOM     17  H   UNL     1      14.395  10.793   8.259  0.00  0.00    +0.000 HD
ENDBRANCH  14  15
ENDBRANCH  13  14
ENDBRANCH   2  13
TORSDOF 4
ENDMDL
MODEL        6
REMARK  Name = 5202
REMARK  4 active torsions:
REMARK  status: ('A' for Active; 'I' for Inactive)
REMARK    1  A    between atoms: O_1  and  C_9
REMARK    2  A    between atoms: C_3  and  C_13
REMARK    3  A    between atoms: C_13  and  C_15
REMARK    4  A    between atoms: N_14  and  C_15
REMARK                            x       y       z     vdW  Elec       q    Type
REMARK                         _______ _______ _______ _____ _____    ______ ____
ROOT
ATOM      1  N   UNL     1      13.630  11.261   7.631  0.00  0.00    +0.000 N 
ATOM      2  C   UNL     1      12.999  12.680   8.053  0.00  0.00    +0.000 A 
ATOM      3  C   UNL     1      13.295  12.220   8.883  0.00  0.00    +0.000 A 
ATOM      4  C   UNL     1      13.687  11.338   8.621  0.00  0.00    +0.000 A 
ATOM      5  C   UNL     1      13.205  12.089   7.281  0.00  0.00    +0.000 A 
ATOM      6  C   UNL     1      13.261  12.486   9.846  0.00  0.00    +0.000 A 
ATOM      7  C   UNL     1      14.045  10.722   9.322  0.00  0.00    +0.000 A 
ATOM      8  C   UNL     1      13.619  11.869  10.548  0.00  0.00    +0.000 A 
ATOM      9  C   UNL     1      14.011  10.988  10.286  0.00  0.00    +0.000 A 
ATOM     10  H   UNL     1      13.825  10.780   7.292  0.00  0.00    +0.000 HD
ENDROOT
BRANCH   8  11
ATOM     11  O   UNL     1      13.585  12.135  11.511  0.00  0.00    +0.000 OA
ATOM     12  H   UNL     1      13.806  11.753  11.946  0.00  0.00    +0.000 HD
ENDBRANCH   8  11
BRANCH   2  13
ATOM     13  C   UNL     1      12.568  13.581   8.003  0.00  0.00    +0.000 C 
BRANCH  13  14
ATOM     14  C   UNL     1      12.616  14.112   7.157  0.00  0.00    +0.000 C 
BRANCH  14  15
ATOM     15  N   UNL     1      12.274  15.052   7.137  0.00  0.00    +0.000 NA
ATOM     16  H   UNL     1      12.303  15.381   6.612  0.00  0.00    +0.000 HD
ATOM     17  H   UNL     1      12.031  15.305   7.648  0.00  0.00    +0.000 HD
ENDBRANCH  14  15
ENDBRANCH  13  14
ENDBRANCH   2  13
TORSDOF 4
ENDMDL
MODEL        7
REMARK  Name = 5202
REMARK  4 active torsions:
REMARK  status: ('A' for Active; 'I' for Inactive)
REMARK    1  A    between atoms: O_1  and  C_9
REMARK    2  A    between atoms: C_3  and  C_13
REMARK    3  A    between atoms: C_13  and  C_15
REMARK    4  A    between atoms: N_14  and  C_15
REMARK                            x       y       z     vdW  Elec       q    Type
REMARK                         _______ _______ _______ _____ _____    ______ ____
ROOT
ATOM      1  N   UNL     1      13.725  12.187   9.618  0.00  0.00    +0.000 N 
ATOM      2  C   UNL     1      13.690  11.312  10.968  0.00  0.00    +0.000 A 
ATOM      3  C   UNL     1      13.266  12.190  11.162  0.00  0.00    +0.000 A 
ATOM      4  C   UNL     1      13.288  12.734  10.323  0.00  0.00    +0.000 A 
ATOM      5  C   UNL     1      13.973  11.310  10.015  0.00  0.00    +0.000 A 
ATOM      6  C   UNL     1      12.861  12.571  11.994  0.00  0.00    +0.000 A 
ATOM      7  C   UNL     1      12.905  13.657  10.315  0.00  0.00    +0.000 A 
ATOM      8  C   UNL     1      12.478  13.494  11.986  0.00  0.00    +0.000 A 
ATOM      9  C   UNL     1      12.500  14.038  11.147  0.00  0.00    +0.000 A 
ATOM     10  H   UNL     1      13.826  12.362   9.031  0.00  0.00    +0.000 HD
ENDROOT
BRANCH   8  11
ATOM     11  O   UNL     1      12.073  13.875  12.817  0.00  0.00    +0.000 OA
ATOM     12  H   UNL     1      11.835  14.447  12.812  0.00  0.00    +0.000 HD
ENDBRANCH   8  11
BRANCH   2  13
ATOM     13  C   UNL     1      13.810  10.562  11.618  0.00  0.00    +0.000 C 
BRANCH  13  14
ATOM     14  C   UNL     1      14.509   9.866  11.455  0.00  0.00    +0.000 C 
BRANCH  14  15
ATOM     15  N   UNL     1      14.672   9.152  12.135  0.00  0.00    +0.000 NA
ATOM     16  H   UNL     1      15.106   8.720  12.034  0.00  0.00    +0.000 HD
ATOM     17  H   UNL     1      14.340   9.140  12.659  0.00  0.00    +0.000 HD
ENDBRANCH  14  15
ENDBRANCH  13  14
ENDBRANCH   2  13
TORSDOF 4
ENDMDL
MODEL        8
REMARK  Name = 5202
REMARK  4 active torsions:
REMARK  status: ('A' for Active; 'I' for Inactive)
REMARK    1  A    between atoms: O_1  and  C_9
REMARK    2  A    between atoms: C_3  and  C_13
REMARK    3  A    between atoms: C_13  and  C_15
REMARK    4  A    between atoms: N_14  and  C_15
REMARK                            x       y       z     vdW  Elec       q    Type
REMARK                         _______ _______ _______ _____ _____    ______ ____
ROOT
ATOM      1  N   UNL     1      13.607  11.288   7.702  0.00  0.00    +0.000 N 
ATOM      2  C   UNL     1      13.207  12.111   9.026  0.00  0.00    +0.000 A 
ATOM      3  C   UNL     1      13.093  12.716   8.245  0.00  0.00    +0.000 A 
ATOM      4  C   UNL     1      13.341  12.205   7.423  0.00  0.00    +0.000 A 
ATOM      5  C   UNL     1      13.524  11.231   8.691  0.00  0.00    +0.000 A 
ATOM      6  C   UNL     1      12.795  13.668   8.171  0.00  0.00    +0.000 A 
ATOM      7  C   UNL     1      13.292  12.645   6.526  0.00  0.00    +0.000 A 
ATOM      8  C   UNL     1      12.745  14.108   7.275  0.00  0.00    +0.000 A 
ATOM      9  C   UNL     1      12.994  13.597   6.452  0.00  0.00    +0.000 A 
ATOM     10  H   UNL     1      13.792  10.832   7.325  0.00  0.00    +0.000 HD
ENDROOT
BRANCH   8  11
ATOM     11  O   UNL     1      12.447  15.060   7.201  0.00  0.00    +0.000 OA
ATOM     12  H   UNL     1      12.416  15.332   6.645  0.00  0.00    +0.000 HD
ENDBRANCH   8  11
BRANCH   2  13
ATOM     13  C   UNL     1      13.033  12.348   9.982  0.00  0.00    +0.000 C 
BRANCH  13  14
ATOM     14  C   UNL     1      13.492  11.844  10.713  0.00  0.00    +0.000 C 
BRANCH  14  15
ATOM     15  N   UNL     1      13.449  12.178  11.655  0.00  0.00    +0.000 NA
ATOM     16  H   UNL     1      13.734  11.866  12.108  0.00  0.00    +0.000 HD
ATOM     17  H   UNL     1      13.137  12.698  11.785  0.00  0.00    +0.000 HD
ENDBRANCH  14  15
ENDBRANCH  13  14
ENDBRANCH   2  13
TORSDOF 4
ENDMDL
MODEL        9
REMARK  Name = 5202
REMARK  4 active torsions:
REMARK  status: ('A' for Active; 'I' for Inactive)
REMARK    1  A    between atoms: O_1  and  C_9
REMARK    2  A    between atoms: C_3  and  C_13
REMARK    3  A    between atoms: C_13  and  C_15
REMARK    4  A    between atoms: N_14  and  C_15
REMARK                            x       y       z     vdW  Elec       q    Type
REMARK                         _______ _______ _______ _____ _____    ______ ____
ROOT
ATOM      1  N   UNL     1      15.062   8.758   8.723  0.00  0.00    +0.000 N 
ATOM      2  C   UNL     1      14.045   9.905   9.214  0.00  0.00    +0.000 A 
ATOM      3  C   UNL     1      13.570   9.341   8.547  0.00  0.00    +0.000 A 
ATOM      4  C   UNL     1      14.201   8.628   8.243  0.00  0.00    +0.000 A 
ATOM      5  C   UNL     1      14.966   9.546   9.322  0.00  0.00    +0.000 A 
ATOM      6  C   UNL     1      12.642   9.380   8.175  0.00  0.00    +0.000 A 
ATOM      7  C   UNL     1      13.906   7.954   7.566  0.00  0.00    +0.000 A 
ATOM      8  C   UNL     1      12.347   8.706   7.498  0.00  0.00    +0.000 A 
ATOM      9  C   UNL     1      12.979   7.993   7.194  0.00  0.00    +0.000 A 
ATOM     10  H   UNL     1      15.570   8.409   8.660  0.00  0.00    +0.000 HD
ENDROOT
BRANCH   8  11
ATOM     11  O   UNL     1      11.419   8.745   7.126  0.00  0.00    +0.000 OA
ATOM     12  H   UNL     1      11.236   8.327   6.706  0.00  0.00    +0.000 HD
ENDBRANCH   8  11
BRANCH   2  13
ATOM     13  C   UNL     1      13.664  10.697   9.691  0.00  0.00    +0.000 C 
BRANCH  13  14
ATOM     14  C   UNL     1      14.274  11.370  10.110  0.00  0.00    +0.000 C 
BRANCH  14  15
ATOM     15  N   UNL     1      13.931  12.281  10.340  0.00  0.00    +0.000 NA
ATOM     16  H   UNL     1      14.310  12.698  10.599  0.00  0.00    +0.000 HD
ATOM     17  H   UNL     1      13.341  12.428  10.222  0.00  0.00    +0.000 HD
ENDBRANCH  14  15
ENDBRANCH  13  14
ENDBRANCH   2  13
TORSDOF 4
ENDMDL
MODEL       10
REMARK  Name = 5202
REMARK  4 active torsions:
REMARK  status: ('A' for Active; 'I' for Inactive)
REMARK    1  A    between atoms: O_1  and  C_9
REMARK    2  A    between atoms: C_3  and  C_13
REMARK    3  A    between atoms: C_13  and  C_15
REMARK    4  A    between atoms: N_14  and  C_15
REMARK                            x       y       z     vdW  Elec       q    Type
REMARK                         _______ _______ _______ _____ _____    ______ ____
ROOT
ATOM      1  N   UNL     1      13.072  13.315  10.688  0.00  0.00    +0.000 N 
ATOM      2  C   UNL     1      13.579  11.806  10.445  0.00  0.00    +0.000 A 
ATOM      3  C   UNL     1      13.262  11.874  11.385  0.00  0.00    +0.000 A 
ATOM      4  C   UNL     1      12.947  12.811  11.536  0.00  0.00    +0.000 A 
ATOM      5  C   UNL     1      13.461  12.695  10.015  0.00  0.00    +0.000 A 
ATOM      6  C   UNL     1      13.218  11.206  12.128  0.00  0.00    +0.000 A 
ATOM      7  C   UNL     1      12.588  13.080  12.429  0.00  0.00    +0.000 A 
ATOM      8  C   UNL     1      12.859  11.475  13.021  0.00  0.00    +0.000 A 
ATOM      9  C   UNL     1      12.544  12.412  13.172  0.00  0.00    +0.000 A 
ATOM     10  H   UNL     1      12.931  13.911  10.595  0.00  0.00    +0.000 HD
ENDROOT
BRANCH   8  11
ATOM     11  O   UNL     1      12.815  10.807  13.764  0.00  0.00    +0.000 OA
ATOM     12  H   UNL     1      12.592  10.974  14.318  0.00  0.00    +0.000 HD
ENDBRANCH   8  11
BRANCH   2  13
ATOM     13  C   UNL     1      13.951  10.987  10.008  0.00  0.00    +0.000 C 
BRANCH  13  14
ATOM     14  C   UNL     1      13.954  10.910   9.011  0.00  0.00    +0.000 C 
BRANCH  14  15
ATOM     15  N   UNL     1      14.329  10.092   8.574  0.00  0.00    +0.000 NA
ATOM     16  H   UNL     1      14.330  10.044   7.956  0.00  0.00    +0.000 HD
ATOM     17  H   UNL     1      14.559   9.633   8.921  0.00  0.00    +0.000 HD
ENDBRANCH  14  15
ENDBRANCH  13  14
ENDBRANCH   2  13
TORSDOF 4
ENDMDL
