MODEL 1
REMARK minimizedAffinity -3.10598469
REMARK minimizedRMSD -1
REMARK  11 active torsions:
REMARK  status: ('A' for Active; 'I' for Inactive)
REMARK    1  A    between atoms: PG_1  and  O3B_8 
REMARK    2  A    between atoms: PB_5  and  O3A_12 
REMARK    3  A    between atoms: PB_5  and  O3B_8 
REMARK    4  A    between atoms: PA_9  and  O5'_13 
REMARK    5  A    between atoms: PA_9  and  O3A_12 
REMARK    6  A    between atoms: O5'_13  and  C5'_14 
REMARK    7  A    between atoms: C5'_14  and  C4'_15 
REMARK    8  A    between atoms: C3'_17  and  O3'_18 
REMARK    9  A    between atoms: C2'_20  and  O2'_21 
REMARK   10  A    between atoms: C1'_23  and  N9_24 
REMARK   11  A    between atoms: C6_29  and  N6_30 
ROOT
HETATM    1  C4' ATP A 501      14.689   9.734   9.457  1.00  5.20     0.180 C 
HETATM    2  O4' ATP A 501      13.867   8.870   8.685  1.00  4.96    -0.353 OA
HETATM    3  C3' ATP A 501      13.790  10.942   9.654  1.00  5.52     0.182 C 
HETATM    4  C2' ATP A 501      13.096  11.085   8.308  1.00  4.80     0.198 C 
HETATM    5  C1' ATP A 501      13.138   9.668   7.743  1.00  4.22     0.262 C 
ENDROOT
BRANCH   5   6
HETATM    6  N9  ATP A 501      11.843   8.997   7.569  1.00  3.78    -0.297 N 
HETATM    7  C4  ATP A 501      10.864   9.296   6.685  1.00  3.29     0.142 A 
HETATM    8  N3  ATP A 501      10.861  10.215   5.693  1.00  4.79    -0.336 N 
HETATM    9  C5  ATP A 501       9.810   8.422   6.973  1.00  3.65     0.122 A 
HETATM   10  C2  ATP A 501       9.739  10.233   4.948  1.00  4.70     0.183 A 
HETATM   12  N1  ATP A 501       8.657   9.439   5.175  1.00  4.95    -0.337 N 
HETATM   13  C6  ATP A 501       8.667   8.518   6.180  1.00  4.22     0.131 A 
HETATM   15  N7  ATP A 501      10.154   7.589   7.998  1.00  4.47    -0.346 N 
HETATM   16  C8  ATP A 501      11.389   7.972   8.354  1.00  4.18     0.188 A 
BRANCH  13  18
HETATM   18  N6  ATP A 501       7.547   7.820   6.401  1.00  5.27    -0.383 N 
ATOM     19  H62 ATP A 501       7.554   7.131   7.153  1.00  0.00     0.157 HD
ATOM     20  H61 ATP A 501       6.710   7.890   5.822  1.00  0.00     0.157 HD
ENDBRANCH  13  18
ENDBRANCH   5   6
BRANCH   4  21
HETATM   21  O2' ATP A 501      13.793  11.985   7.470  1.00  6.19    -0.388 OA
ATOM     22  H2' ATP A 501      13.359  12.074   6.629  1.00  0.00     0.210 HD
ENDBRANCH   4  21
BRANCH   3  23
HETATM   23  O3' ATP A 501      14.474  12.092  10.070  1.00  7.48    -0.390 OA
ATOM     24  H3' ATP A 501      14.907  12.003  10.911  1.00  0.00     0.210 HD
ENDBRANCH   3  23
BRANCH   1  25
HETATM   25  C5' ATP A 501      15.062   9.102  10.775  1.00  6.42     0.216 C 
BRANCH  25  26
HETATM   26  O5' ATP A 501      14.400   9.763  11.835  1.00  6.65    -0.287 OA
BRANCH  26  27
HETATM   27  PA  ATP A 501      13.322   9.040  12.745  1.00  6.54     0.417 P 
HETATM   28  O2A ATP A 501      12.372   8.229  11.898  1.00  7.34    -0.624 OA
HETATM   29  O1A ATP A 501      14.094   8.412  13.841  1.00  8.18    -0.624 OA
BRANCH  27  30
HETATM   30  O3A ATP A 501      12.437  10.268  13.300  1.00  6.94    -0.180 OA
BRANCH  30  31
HETATM   31  PB  ATP A 501      12.996  11.648  13.902  1.00  6.53     0.428 P 
HETATM   32  O1B ATP A 501      12.057  12.159  14.914  1.00  8.60    -0.624 OA
HETATM   33  O2B ATP A 501      14.410  11.452  14.340  1.00  5.78    -0.624 OA
BRANCH  31  34
HETATM   34  O3B ATP A 501      12.915  12.506  12.565  1.00  7.50    -0.173 OA
BRANCH  34  35
HETATM   35  PG  ATP A 501      11.632  13.329  12.048  1.00  8.07     0.431 P 
HETATM   36  O2G ATP A 501      11.961  13.718  10.627  1.00  9.86    -0.616 OA
HETATM   37  O3G ATP A 501      11.584  14.557  12.955  1.00  9.14    -0.616 OA
HETATM   38  O1G ATP A 501      10.440  12.416  12.197  1.00  6.46    -0.616 OA
ENDBRANCH  34  35
ENDBRANCH  31  34
ENDBRANCH  30  31
ENDBRANCH  27  30
ENDBRANCH  26  27
ENDBRANCH  25  26
ENDBRANCH   1  25
TORSDOF 11
ENDMDL
MODEL 2
REMARK minimizedAffinity -3.05965805
REMARK minimizedRMSD -1
REMARK  11 active torsions:
REMARK  status: ('A' for Active; 'I' for Inactive)
REMARK    1  A    between atoms: PG_1  and  O3B_8 
REMARK    2  A    between atoms: PB_5  and  O3A_12 
REMARK    3  A    between atoms: PB_5  and  O3B_8 
REMARK    4  A    between atoms: PA_9  and  O5'_13 
REMARK    5  A    between atoms: PA_9  and  O3A_12 
REMARK    6  A    between atoms: O5'_13  and  C5'_14 
REMARK    7  A    between atoms: C5'_14  and  C4'_15 
REMARK    8  A    between atoms: C3'_17  and  O3'_18 
REMARK    9  A    between atoms: C2'_20  and  O2'_21 
REMARK   10  A    between atoms: C1'_23  and  N9_24 
REMARK   11  A    between atoms: C6_29  and  N6_30 
ROOT
HETATM    1  C4' ATP A 501      14.473   9.972   9.764  1.00  5.20     0.180 C 
HETATM    2  O4' ATP A 501      13.679   9.056   9.024  1.00  4.96    -0.353 OA
HETATM    3  C3' ATP A 501      13.613  11.223   9.755  1.00  5.52     0.182 C 
HETATM    4  C2' ATP A 501      13.035  11.241   8.348  1.00  4.80     0.198 C 
HETATM    5  C1' ATP A 501      13.062   9.769   7.944  1.00  4.22     0.262 C 
ENDROOT
BRANCH   5   6
HETATM    6  N9  ATP A 501      11.757   9.126   7.735  1.00  3.78    -0.297 N 
HETATM    7  C4  ATP A 501      10.779   8.917   8.645  1.00  3.29     0.142 A 
HETATM    8  N3  ATP A 501      10.713   9.317   9.934  1.00  4.79    -0.336 N 
HETATM    9  C5  ATP A 501       9.781   8.201   7.973  1.00  3.65     0.122 A 
HETATM   10  C2  ATP A 501       9.569   8.988  10.566  1.00  4.70     0.183 A 
HETATM   12  N1  ATP A 501       8.561   8.271   9.999  1.00  4.95    -0.337 N 
HETATM   13  C6  ATP A 501       8.638   7.868   8.699  1.00  4.22     0.131 A 
HETATM   15  N7  ATP A 501      10.138   8.003   6.671  1.00  4.47    -0.346 N 
HETATM   16  C8  ATP A 501      11.352   8.559   6.557  1.00  4.18     0.188 A 
BRANCH  13  18
HETATM   18  N6  ATP A 501       7.650   7.102   8.220  1.00  5.27    -0.383 N 
ATOM     19  H62 ATP A 501       7.708   6.800   7.248  1.00  0.00     0.157 HD
ATOM     20  H61 ATP A 501       6.814   6.858   8.751  1.00  0.00     0.157 HD
ENDBRANCH  13  18
ENDBRANCH   5   6
BRANCH   4  21
HETATM   21  O2' ATP A 501      13.834  12.019   7.479  1.00  6.19    -0.388 OA
ATOM     22  H2' ATP A 501      13.472  12.029   6.601  1.00  0.00     0.210 HD
ENDBRANCH   4  21
BRANCH   3  23
HETATM   23  O3' ATP A 501      14.310  12.389  10.101  1.00  7.48    -0.390 OA
ATOM     24  H3' ATP A 501      14.672  12.378  10.980  1.00  0.00     0.210 HD
ENDBRANCH   3  23
BRANCH   1  25
HETATM   25  C5' ATP A 501      14.713   9.477  11.169  1.00  6.42     0.216 C 
BRANCH  25  26
HETATM   26  O5' ATP A 501      14.586  10.544  12.088  1.00  6.65    -0.287 OA
BRANCH  26  27
HETATM   27  PA  ATP A 501      13.954  10.351  13.529  1.00  6.54     0.417 P 
HETATM   28  O2A ATP A 501      14.071   8.914  13.971  1.00  7.34    -0.624 OA
HETATM   29  O1A ATP A 501      14.509  11.451  14.350  1.00  8.18    -0.624 OA
BRANCH  27  30
HETATM   30  O3A ATP A 501      12.379  10.576  13.264  1.00  6.94    -0.180 OA
BRANCH  30  31
HETATM   31  PB  ATP A 501      11.554  11.929  13.527  1.00  6.53     0.428 P 
HETATM   32  O1B ATP A 501      10.164  11.752  13.075  1.00  8.60    -0.624 OA
HETATM   33  O2B ATP A 501      11.748  12.351  14.946  1.00  5.78    -0.624 OA
BRANCH  31  34
HETATM   34  O3B ATP A 501      12.364  12.864  12.527  1.00  7.50    -0.173 OA
BRANCH  34  35
HETATM   35  PG  ATP A 501      11.833  14.242  11.886  1.00  8.07     0.431 P 
HETATM   36  O2G ATP A 501      10.974  13.826  10.716  1.00  9.86    -0.616 OA
HETATM   37  O3G ATP A 501      13.102  14.947  11.410  1.00  9.14    -0.616 OA
HETATM   38  O1G ATP A 501      11.102  14.980  12.980  1.00  6.46    -0.616 OA
ENDBRANCH  34  35
ENDBRANCH  31  34
ENDBRANCH  30  31
ENDBRANCH  27  30
ENDBRANCH  26  27
ENDBRANCH  25  26
ENDBRANCH   1  25
TORSDOF 11
ENDMDL
MODEL 3
REMARK minimizedAffinity -2.95593286
REMARK minimizedRMSD -1
REMARK  11 active torsions:
REMARK  status: ('A' for Active; 'I' for Inactive)
REMARK    1  A    between atoms: PG_1  and  O3B_8 
REMARK    2  A    between atoms: PB_5  and  O3A_12 
REMARK    3  A    between atoms: PB_5  and  O3B_8 
REMARK    4  A    between atoms: PA_9  and  O5'_13 
REMARK    5  A    between atoms: PA_9  and  O3A_12 
REMARK    6  A    between atoms: O5'_13  and  C5'_14 
REMARK    7  A    between atoms: C5'_14  and  C4'_15 
REMARK    8  A    between atoms: C3'_17  and  O3'_18 
REMARK    9  A    between atoms: C2'_20  and  O2'_21 
REMARK   10  A    between atoms: C1'_23  and  N9_24 
REMARK   11  A    between atoms: C6_29  and  N6_30 
ROOT
HETATM    1  C4' ATP A 501      14.461  10.030   9.973  1.00  5.20     0.180 C 
HETATM    2  O4' ATP A 501      13.742   9.028   9.269  1.00  4.96    -0.353 OA
HETATM    3  C3' ATP A 501      13.545  11.235   9.842  1.00  5.52     0.182 C 
HETATM    4  C2' ATP A 501      13.025  11.126   8.417  1.00  4.80     0.198 C 
HETATM    5  C1' ATP A 501      13.136   9.634   8.120  1.00  4.22     0.262 C 
ENDROOT
BRANCH   5   6
HETATM    6  N9  ATP A 501      11.872   8.914   7.908  1.00  3.78    -0.297 N 
HETATM    7  C4  ATP A 501      11.702   7.639   7.490  1.00  3.29     0.142 A 
HETATM    8  N3  ATP A 501      12.632   6.688   7.250  1.00  4.79    -0.336 N 
HETATM    9  C5  ATP A 501      10.320   7.459   7.371  1.00  3.65     0.122 A 
HETATM   10  C2  ATP A 501      12.131   5.491   6.890  1.00  4.70     0.183 A 
HETATM   12  N1  ATP A 501      10.804   5.236   6.724  1.00  4.95    -0.337 N 
HETATM   13  C6  ATP A 501       9.873   6.203   6.963  1.00  4.22     0.131 A 
HETATM   15  N7  ATP A 501       9.662   8.598   7.736  1.00  4.47    -0.346 N 
HETATM   16  C8  ATP A 501      10.630   9.474   8.040  1.00  4.18     0.188 A 
BRANCH  13  18
HETATM   18  N6  ATP A 501       8.591   5.915   6.710  1.00  5.27    -0.383 N 
ATOM     19  H62 ATP A 501       7.894   6.638   6.889  1.00  0.00     0.157 HD
ATOM     20  H61 ATP A 501       8.264   4.996   6.411  1.00  0.00     0.157 HD
ENDBRANCH  13  18
ENDBRANCH   5   6
BRANCH   4  21
HETATM   21  O2' ATP A 501      13.821  11.881   7.526  1.00  6.19    -0.388 OA
ATOM     22  H2' ATP A 501      13.496  11.813   6.636  1.00  0.00     0.210 HD
ENDBRANCH   4  21
BRANCH   3  23
HETATM   23  O3' ATP A 501      14.172  12.454  10.131  1.00  7.48    -0.390 OA
ATOM     24  H3' ATP A 501      14.497  12.522  11.021  1.00  0.00     0.210 HD
ENDBRANCH   3  23
BRANCH   1  25
HETATM   25  C5' ATP A 501      14.666   9.646  11.417  1.00  6.42     0.216 C 
BRANCH  25  26
HETATM   26  O5' ATP A 501      14.314  10.724  12.261  1.00  6.65    -0.287 OA
BRANCH  26  27
HETATM   27  PA  ATP A 501      13.386  10.538  13.533  1.00  6.54     0.417 P 
HETATM   28  O2A ATP A 501      13.111   9.075  13.778  1.00  7.34    -0.624 OA
HETATM   29  O1A ATP A 501      13.987  11.390  14.584  1.00  8.18    -0.624 OA
BRANCH  27  30
HETATM   30  O3A ATP A 501      11.976  11.148  13.041  1.00  6.94    -0.180 OA
BRANCH  30  31
HETATM   31  PB  ATP A 501      11.590  12.704  12.957  1.00  6.53     0.428 P 
HETATM   32  O1B ATP A 501      10.831  13.089  14.158  1.00  8.60    -0.624 OA
HETATM   33  O2B ATP A 501      12.821  13.497  12.661  1.00  5.78    -0.624 OA
BRANCH  31  34
HETATM   34  O3B ATP A 501      10.638  12.614  11.685  1.00  7.50    -0.173 OA
BRANCH  34  35
HETATM   35  PG  ATP A 501      10.244  13.834  10.713  1.00  8.07     0.431 P 
HETATM   36  O2G ATP A 501       9.016  13.365   9.971  1.00  9.86    -0.616 OA
HETATM   37  O3G ATP A 501      11.438  13.964   9.770  1.00  9.14    -0.616 OA
HETATM   38  O1G ATP A 501      10.031  15.042  11.593  1.00  6.46    -0.616 OA
ENDBRANCH  34  35
ENDBRANCH  31  34
ENDBRANCH  30  31
ENDBRANCH  27  30
ENDBRANCH  26  27
ENDBRANCH  25  26
ENDBRANCH   1  25
TORSDOF 11
ENDMDL
MODEL 4
REMARK minimizedAffinity -2.93704557
REMARK minimizedRMSD -1
REMARK  11 active torsions:
REMARK  status: ('A' for Active; 'I' for Inactive)
REMARK    1  A    between atoms: PG_1  and  O3B_8 
REMARK    2  A    between atoms: PB_5  and  O3A_12 
REMARK    3  A    between atoms: PB_5  and  O3B_8 
REMARK    4  A    between atoms: PA_9  and  O5'_13 
REMARK    5  A    between atoms: PA_9  and  O3A_12 
REMARK    6  A    between atoms: O5'_13  and  C5'_14 
REMARK    7  A    between atoms: C5'_14  and  C4'_15 
REMARK    8  A    between atoms: C3'_17  and  O3'_18 
REMARK    9  A    between atoms: C2'_20  and  O2'_21 
REMARK   10  A    between atoms: C1'_23  and  N9_24 
REMARK   11  A    between atoms: C6_29  and  N6_30 
ROOT
HETATM    1  C4' ATP A 501      14.013  10.922   9.343  1.00  5.20     0.180 C 
HETATM    2  O4' ATP A 501      13.229  10.242   8.373  1.00  4.96    -0.353 OA
HETATM    3  C3' ATP A 501      13.200  12.181   9.588  1.00  5.52     0.182 C 
HETATM    4  C2' ATP A 501      12.701  12.552   8.200  1.00  4.80     0.198 C 
HETATM    5  C1' ATP A 501      12.698  11.216   7.464  1.00  4.22     0.262 C 
ENDROOT
BRANCH   5   6
HETATM    6  N9  ATP A 501      11.384  10.702   7.051  1.00  3.78    -0.297 N 
HETATM    7  C4  ATP A 501      10.327  10.397   7.837  1.00  3.29     0.142 A 
HETATM    8  N3  ATP A 501      10.177  10.568   9.169  1.00  4.79    -0.336 N 
HETATM    9  C5  ATP A 501       9.353   9.874   6.979  1.00  3.65     0.122 A 
HETATM   10  C2  ATP A 501       8.971  10.206   9.649  1.00  4.70     0.183 A 
HETATM   12  N1  ATP A 501       7.978   9.663   8.893  1.00  4.95    -0.337 N 
HETATM   13  C6  ATP A 501       8.140   9.490   7.551  1.00  4.22     0.131 A 
HETATM   15  N7  ATP A 501       9.803   9.885   5.691  1.00  4.47    -0.346 N 
HETATM   16  C8  ATP A 501      11.048  10.376   5.764  1.00  4.18     0.188 A 
BRANCH  13  18
HETATM   18  N6  ATP A 501       7.158   8.883   6.874  1.00  5.27    -0.383 N 
ATOM     19  H62 ATP A 501       7.279   8.753   5.870  1.00  0.00     0.157 HD
ATOM     20  H61 ATP A 501       6.271   8.602   7.292  1.00  0.00     0.157 HD
ENDBRANCH  13  18
ENDBRANCH   5   6
BRANCH   4  21
HETATM   21  O2' ATP A 501      13.574  13.472   7.575  1.00  6.19    -0.388 OA
ATOM     22  H2' ATP A 501      13.262  13.704   6.708  1.00  0.00     0.210 HD
ENDBRANCH   4  21
BRANCH   3  23
HETATM   23  O3' ATP A 501      13.918  13.200  10.229  1.00  7.48    -0.390 OA
ATOM     24  H3' ATP A 501      14.230  12.968  11.096  1.00  0.00     0.210 HD
ENDBRANCH   3  23
BRANCH   1  25
HETATM   25  C5' ATP A 501      14.158  10.104  10.601  1.00  6.42     0.216 C 
BRANCH  25  26
HETATM   26  O5' ATP A 501      14.266  10.956  11.724  1.00  6.65    -0.287 OA
BRANCH  26  27
HETATM   27  PA  ATP A 501      13.601  10.608  13.120  1.00  6.54     0.417 P 
HETATM   28  O2A ATP A 501      13.514   9.113  13.309  1.00  7.34    -0.624 OA
HETATM   29  O1A ATP A 501      14.294  11.464  14.109  1.00  8.18    -0.624 OA
BRANCH  27  30
HETATM   30  O3A ATP A 501      12.074  11.088  12.921  1.00  6.94    -0.180 OA
BRANCH  30  31
HETATM   31  PB  ATP A 501      11.490  12.553  13.226  1.00  6.53     0.428 P 
HETATM   32  O1B ATP A 501      11.138  12.654  14.651  1.00  8.60    -0.624 OA
HETATM   33  O2B ATP A 501      12.439  13.577  12.697  1.00  5.78    -0.624 OA
BRANCH  31  34
HETATM   34  O3B ATP A 501      10.185  12.449  12.322  1.00  7.50    -0.173 OA
BRANCH  34  35
HETATM   35  PG  ATP A 501       9.407  13.683  11.642  1.00  8.07     0.431 P 
HETATM   36  O2G ATP A 501       8.018  13.164  11.360  1.00  9.86    -0.616 OA
HETATM   37  O3G ATP A 501      10.171  13.939  10.345  1.00  9.14    -0.616 OA
HETATM   38  O1G ATP A 501       9.471  14.830  12.621  1.00  6.46    -0.616 OA
ENDBRANCH  34  35
ENDBRANCH  31  34
ENDBRANCH  30  31
ENDBRANCH  27  30
ENDBRANCH  26  27
ENDBRANCH  25  26
ENDBRANCH   1  25
TORSDOF 11
ENDMDL
MODEL 5
REMARK minimizedAffinity -2.9007566
REMARK minimizedRMSD -1
REMARK  11 active torsions:
REMARK  status: ('A' for Active; 'I' for Inactive)
REMARK    1  A    between atoms: PG_1  and  O3B_8 
REMARK    2  A    between atoms: PB_5  and  O3A_12 
REMARK    3  A    between atoms: PB_5  and  O3B_8 
REMARK    4  A    between atoms: PA_9  and  O5'_13 
REMARK    5  A    between atoms: PA_9  and  O3A_12 
REMARK    6  A    between atoms: O5'_13  and  C5'_14 
REMARK    7  A    between atoms: C5'_14  and  C4'_15 
REMARK    8  A    between atoms: C3'_17  and  O3'_18 
REMARK    9  A    between atoms: C2'_20  and  O2'_21 
REMARK   10  A    between atoms: C1'_23  and  N9_24 
REMARK   11  A    between atoms: C6_29  and  N6_30 
ROOT
HETATM    1  C4' ATP A 501      11.769  12.033   6.534  1.00  5.20     0.180 C 
HETATM    2  O4' ATP A 501      11.000  11.773   7.700  1.00  4.96    -0.353 OA
HETATM    3  C3' ATP A 501      13.191  11.882   7.046  1.00  5.52     0.182 C 
HETATM    4  C2' ATP A 501      13.136  12.518   8.426  1.00  4.80     0.198 C 
HETATM    5  C1' ATP A 501      11.670  12.367   8.820  1.00  4.22     0.262 C 
ENDROOT
BRANCH   5   6
HETATM    6  N9  ATP A 501      11.388  11.489   9.965  1.00  3.78    -0.297 N 
HETATM    7  C4  ATP A 501      11.956  11.517  11.192  1.00  3.29     0.142 A 
HETATM    8  N3  ATP A 501      12.846  12.397  11.701  1.00  4.79    -0.336 N 
HETATM    9  C5  ATP A 501      11.409  10.433  11.888  1.00  3.65     0.122 A 
HETATM   10  C2  ATP A 501      13.183  12.175  12.986  1.00  4.70     0.183 A 
HETATM   12  N1  ATP A 501      12.721  11.132  13.729  1.00  4.95    -0.337 N 
HETATM   13  C6  ATP A 501      11.826  10.246  13.206  1.00  4.22     0.131 A 
HETATM   15  N7  ATP A 501      10.505   9.776  11.105  1.00  4.47    -0.346 N 
HETATM   16  C8  ATP A 501      10.525  10.427   9.934  1.00  4.18     0.188 A 
BRANCH  13  18
HETATM   18  N6  ATP A 501      11.467   9.199  13.959  1.00  5.27    -0.383 N 
ATOM     19  H62 ATP A 501      10.798   8.537  13.567  1.00  0.00     0.157 HD
ATOM     20  H61 ATP A 501      11.773   9.062  14.922  1.00  0.00     0.157 HD
ENDBRANCH  13  18
ENDBRANCH   5   6
BRANCH   4  21
HETATM   21  O2' ATP A 501      13.509  13.880   8.374  1.00  6.19    -0.388 OA
ATOM     22  H2' ATP A 501      13.474  14.277   9.236  1.00  0.00     0.210 HD
ENDBRANCH   4  21
BRANCH   3  23
HETATM   23  O3' ATP A 501      14.158  12.437   6.198  1.00  7.48    -0.390 OA
ATOM     24  H3' ATP A 501      14.192  12.041   5.336  1.00  0.00     0.210 HD
ENDBRANCH   3  23
BRANCH   1  25
HETATM   25  C5' ATP A 501      11.465  11.037   5.444  1.00  6.42     0.216 C 
BRANCH  25  26
HETATM   26  O5' ATP A 501      10.839   9.893   5.991  1.00  6.65    -0.287 OA
BRANCH  26  27
HETATM   27  PA  ATP A 501      11.586   8.501   6.127  1.00  6.54     0.417 P 
HETATM   28  O2A ATP A 501      10.595   7.364   6.099  1.00  7.34    -0.624 OA
HETATM   29  O1A ATP A 501      12.706   8.562   5.162  1.00  8.18    -0.624 OA
BRANCH  27  30
HETATM   30  O3A ATP A 501      12.136   8.534   7.642  1.00  6.94    -0.180 OA
BRANCH  30  31
HETATM   31  PB  ATP A 501      13.332   7.645   8.239  1.00  6.53     0.428 P 
HETATM   32  O1B ATP A 501      13.183   6.253   7.786  1.00  8.60    -0.624 OA
HETATM   33  O2B ATP A 501      14.634   8.311   7.937  1.00  5.78    -0.624 OA
BRANCH  31  34
HETATM   34  O3B ATP A 501      12.950   7.788   9.777  1.00  7.50    -0.173 OA
BRANCH  34  35
HETATM   35  PG  ATP A 501      13.970   7.677  11.017  1.00  8.07     0.431 P 
HETATM   36  O2G ATP A 501      14.952   6.600  10.623  1.00  9.86    -0.616 OA
HETATM   37  O3G ATP A 501      13.095   7.220  12.183  1.00  9.14    -0.616 OA
HETATM   38  O1G ATP A 501      14.572   9.047  11.210  1.00  6.46    -0.616 OA
ENDBRANCH  34  35
ENDBRANCH  31  34
ENDBRANCH  30  31
ENDBRANCH  27  30
ENDBRANCH  26  27
ENDBRANCH  25  26
ENDBRANCH   1  25
TORSDOF 11
ENDMDL
MODEL 6
REMARK minimizedAffinity -2.8670063
REMARK minimizedRMSD -1
REMARK  11 active torsions:
REMARK  status: ('A' for Active; 'I' for Inactive)
REMARK    1  A    between atoms: PG_1  and  O3B_8 
REMARK    2  A    between atoms: PB_5  and  O3A_12 
REMARK    3  A    between atoms: PB_5  and  O3B_8 
REMARK    4  A    between atoms: PA_9  and  O5'_13 
REMARK    5  A    between atoms: PA_9  and  O3A_12 
REMARK    6  A    between atoms: O5'_13  and  C5'_14 
REMARK    7  A    between atoms: C5'_14  and  C4'_15 
REMARK    8  A    between atoms: C3'_17  and  O3'_18 
REMARK    9  A    between atoms: C2'_20  and  O2'_21 
REMARK   10  A    between atoms: C1'_23  and  N9_24 
REMARK   11  A    between atoms: C6_29  and  N6_30 
ROOT
HETATM    1  C4' ATP A 501      11.857  11.979   6.607  1.00  5.20     0.180 C 
HETATM    2  O4' ATP A 501      11.374  12.231   7.918  1.00  4.96    -0.353 OA
HETATM    3  C3' ATP A 501      13.318  12.379   6.720  1.00  5.52     0.182 C 
HETATM    4  C2' ATP A 501      13.274  13.620   7.598  1.00  4.80     0.198 C 
HETATM    5  C1' ATP A 501      11.989  13.433   8.400  1.00  4.22     0.262 C 
ENDROOT
BRANCH   5   6
HETATM    6  N9  ATP A 501      12.146  13.248   9.849  1.00  3.78    -0.297 N 
HETATM    7  C4  ATP A 501      12.865  12.301  10.493  1.00  3.29     0.142 A 
HETATM    8  N3  ATP A 501      13.681  11.353   9.981  1.00  4.79    -0.336 N 
HETATM    9  C5  ATP A 501      12.626  12.504  11.857  1.00  3.65     0.122 A 
HETATM   10  C2  ATP A 501      14.297  10.586  10.901  1.00  4.70     0.183 A 
HETATM   12  N1  ATP A 501      14.102  10.696  12.244  1.00  4.95    -0.337 N 
HETATM   13  C6  ATP A 501      13.274  11.652  12.752  1.00  4.22     0.131 A 
HETATM   15  N7  ATP A 501      11.796  13.572  12.038  1.00  4.47    -0.346 N 
HETATM   16  C8  ATP A 501      11.504  13.996  10.800  1.00  4.18     0.188 A 
BRANCH  13  18
HETATM   18  N6  ATP A 501      13.064  11.662  14.073  1.00  5.27    -0.383 N 
ATOM     19  H62 ATP A 501      12.444  12.377  14.453  1.00  0.00     0.157 HD
ATOM     20  H61 ATP A 501      13.537  11.039  14.728  1.00  0.00     0.157 HD
ENDBRANCH  13  18
ENDBRANCH   5   6
BRANCH   4  21
HETATM   21  O2' ATP A 501      13.216  14.796   6.815  1.00  6.19    -0.388 OA
ATOM     22  H2' ATP A 501      13.189  15.570   7.364  1.00  0.00     0.210 HD
ENDBRANCH   4  21
BRANCH   3  23
HETATM   23  O3' ATP A 501      13.946  12.575   5.483  1.00  7.48    -0.390 OA
ATOM     24  H3' ATP A 501      13.974  11.801   4.934  1.00  0.00     0.210 HD
ENDBRANCH   3  23
BRANCH   1  25
HETATM   25  C5' ATP A 501      11.710  10.524   6.238  1.00  6.42     0.216 C 
BRANCH  25  26
HETATM   26  O5' ATP A 501      12.880   9.813   6.590  1.00  6.65    -0.287 OA
BRANCH  26  27
HETATM   27  PA  ATP A 501      12.838   8.489   7.461  1.00  6.54     0.417 P 
HETATM   28  O2A ATP A 501      12.059   7.411   6.749  1.00  7.34    -0.624 OA
HETATM   29  O1A ATP A 501      14.234   8.262   7.897  1.00  8.18    -0.624 OA
BRANCH  27  30
HETATM   30  O3A ATP A 501      11.911   8.911   8.712  1.00  6.94    -0.180 OA
BRANCH  30  31
HETATM   31  PB  ATP A 501      11.210   7.912   9.756  1.00  6.53     0.428 P 
HETATM   32  O1B ATP A 501       9.840   7.614   9.307  1.00  8.60    -0.624 OA
HETATM   33  O2B ATP A 501      12.107   6.741   9.990  1.00  5.78    -0.624 OA
BRANCH  31  34
HETATM   34  O3B ATP A 501      11.198   8.894  11.008  1.00  7.50    -0.173 OA
BRANCH  34  35
HETATM   35  PG  ATP A 501      10.992   8.461  12.544  1.00  8.07     0.431 P 
HETATM   36  O2G ATP A 501       9.884   7.435  12.518  1.00  9.86    -0.616 OA
HETATM   37  O3G ATP A 501      10.535   9.743  13.237  1.00  9.14    -0.616 OA
HETATM   38  O1G ATP A 501      12.322   7.947  13.036  1.00  6.46    -0.616 OA
ENDBRANCH  34  35
ENDBRANCH  31  34
ENDBRANCH  30  31
ENDBRANCH  27  30
ENDBRANCH  26  27
ENDBRANCH  25  26
ENDBRANCH   1  25
TORSDOF 11
ENDMDL
MODEL 7
REMARK minimizedAffinity -2.85238361
REMARK minimizedRMSD -1
REMARK  11 active torsions:
REMARK  status: ('A' for Active; 'I' for Inactive)
REMARK    1  A    between atoms: PG_1  and  O3B_8 
REMARK    2  A    between atoms: PB_5  and  O3A_12 
REMARK    3  A    between atoms: PB_5  and  O3B_8 
REMARK    4  A    between atoms: PA_9  and  O5'_13 
REMARK    5  A    between atoms: PA_9  and  O3A_12 
REMARK    6  A    between atoms: O5'_13  and  C5'_14 
REMARK    7  A    between atoms: C5'_14  and  C4'_15 
REMARK    8  A    between atoms: C3'_17  and  O3'_18 
REMARK    9  A    between atoms: C2'_20  and  O2'_21 
REMARK   10  A    between atoms: C1'_23  and  N9_24 
REMARK   11  A    between atoms: C6_29  and  N6_30 
ROOT
HETATM    1  C4' ATP A 501      12.824  10.550  13.890  1.00  5.20     0.180 C 
HETATM    2  O4' ATP A 501      12.374   9.616  12.920  1.00  4.96    -0.353 OA
HETATM    3  C3' ATP A 501      14.322  10.576  13.640  1.00  5.52     0.182 C 
HETATM    4  C2' ATP A 501      14.655   9.120  13.357  1.00  4.80     0.198 C 
HETATM    5  C1' ATP A 501      13.336   8.556  12.837  1.00  4.22     0.262 C 
ENDROOT
BRANCH   5   6
HETATM    6  N9  ATP A 501      13.323   8.113  11.436  1.00  3.78    -0.297 N 
HETATM    7  C4  ATP A 501      12.271   7.659  10.718  1.00  3.29     0.142 A 
HETATM    8  N3  ATP A 501      10.968   7.581  11.069  1.00  4.79    -0.336 N 
HETATM    9  C5  ATP A 501      12.791   7.292   9.472  1.00  3.65     0.122 A 
HETATM   10  C2  ATP A 501      10.152   7.124  10.100  1.00  4.70     0.183 A 
HETATM   12  N1  ATP A 501      10.575   6.720   8.871  1.00  4.95    -0.337 N 
HETATM   13  C6  ATP A 501      11.892   6.798   8.526  1.00  4.22     0.131 A 
HETATM   15  N7  ATP A 501      14.131   7.544   9.426  1.00  4.47    -0.346 N 
HETATM   16  C8  ATP A 501      14.434   8.026  10.639  1.00  4.18     0.188 A 
BRANCH  13  18
HETATM   18  N6  ATP A 501      12.258   6.315   7.333  1.00  5.27    -0.383 N 
ATOM     19  H62 ATP A 501      13.242   6.373   7.075  1.00  0.00     0.157 HD
ATOM     20  H61 ATP A 501      11.600   5.953   6.642  1.00  0.00     0.157 HD
ENDBRANCH  13  18
ENDBRANCH   5   6
BRANCH   4  21
HETATM   21  O2' ATP A 501      15.062   8.452  14.535  1.00  6.19    -0.388 OA
ATOM     22  H2' ATP A 501      15.270   7.543  14.358  1.00  0.00     0.210 HD
ENDBRANCH   4  21
BRANCH   3  23
HETATM   23  O3' ATP A 501      15.059  11.138  14.691  1.00  7.48    -0.390 OA
ATOM     24  H3' ATP A 501      14.851  12.048  14.868  1.00  0.00     0.210 HD
ENDBRANCH   3  23
BRANCH   1  25
HETATM   25  C5' ATP A 501      12.204  11.907  13.673  1.00  6.42     0.216 C 
BRANCH  25  26
HETATM   26  O5' ATP A 501      13.008  12.675  12.800  1.00  6.65    -0.287 OA
BRANCH  26  27
HETATM   27  PA  ATP A 501      12.399  13.771  11.830  1.00  6.54     0.417 P 
HETATM   28  O2A ATP A 501      10.914  13.566  11.663  1.00  7.34    -0.624 OA
HETATM   29  O1A ATP A 501      12.944  15.062  12.309  1.00  8.18    -0.624 OA
BRANCH  27  30
HETATM   30  O3A ATP A 501      13.034  13.380  10.400  1.00  6.94    -0.180 OA
BRANCH  30  31
HETATM   31  PB  ATP A 501      13.152  11.901   9.785  1.00  6.53     0.428 P 
HETATM   32  O1B ATP A 501      14.427  11.295  10.203  1.00  8.60    -0.624 OA
HETATM   33  O2B ATP A 501      11.911  11.137  10.108  1.00  5.78    -0.624 OA
BRANCH  31  34
HETATM   34  O3B ATP A 501      13.195  12.317   8.250  1.00  7.50    -0.173 OA
BRANCH  34  35
HETATM   35  PG  ATP A 501      12.527  11.504   7.033  1.00  8.07     0.431 P 
HETATM   36  O2G ATP A 501      12.927  10.065   7.254  1.00  9.86    -0.616 OA
HETATM   37  O3G ATP A 501      13.199  12.075   5.786  1.00  9.14    -0.616 OA
HETATM   38  O1G ATP A 501      11.042  11.767   7.096  1.00  6.46    -0.616 OA
ENDBRANCH  34  35
ENDBRANCH  31  34
ENDBRANCH  30  31
ENDBRANCH  27  30
ENDBRANCH  26  27
ENDBRANCH  25  26
ENDBRANCH   1  25
TORSDOF 11
ENDMDL
MODEL 8
REMARK minimizedAffinity -2.81605124
REMARK minimizedRMSD -1
REMARK  11 active torsions:
REMARK  status: ('A' for Active; 'I' for Inactive)
REMARK    1  A    between atoms: PG_1  and  O3B_8 
REMARK    2  A    between atoms: PB_5  and  O3A_12 
REMARK    3  A    between atoms: PB_5  and  O3B_8 
REMARK    4  A    between atoms: PA_9  and  O5'_13 
REMARK    5  A    between atoms: PA_9  and  O3A_12 
REMARK    6  A    between atoms: O5'_13  and  C5'_14 
REMARK    7  A    between atoms: C5'_14  and  C4'_15 
REMARK    8  A    between atoms: C3'_17  and  O3'_18 
REMARK    9  A    between atoms: C2'_20  and  O2'_21 
REMARK   10  A    between atoms: C1'_23  and  N9_24 
REMARK   11  A    between atoms: C6_29  and  N6_30 
ROOT
HETATM    1  C4' ATP A 501      12.773  11.691  14.340  1.00  5.20     0.180 C 
HETATM    2  O4' ATP A 501      13.556  11.910  13.175  1.00  4.96    -0.353 OA
HETATM    3  C3' ATP A 501      11.362  11.666  13.779  1.00  5.52     0.182 C 
HETATM    4  C2' ATP A 501      11.385  12.761  12.725  1.00  4.80     0.198 C 
HETATM    5  C1' ATP A 501      12.857  12.836  12.333  1.00  4.22     0.262 C 
ENDROOT
BRANCH   5   6
HETATM    6  N9  ATP A 501      13.186  12.449  10.954  1.00  3.78    -0.297 N 
HETATM    7  C4  ATP A 501      12.891  13.111   9.813  1.00  3.29     0.142 A 
HETATM    8  N3  ATP A 501      12.308  14.320   9.653  1.00  4.79    -0.336 N 
HETATM    9  C5  ATP A 501      13.346  12.295   8.771  1.00  3.65     0.122 A 
HETATM   10  C2  ATP A 501      12.198  14.726   8.374  1.00  4.70     0.183 A 
HETATM   12  N1  ATP A 501      12.589  13.986   7.300  1.00  4.95    -0.337 N 
HETATM   13  C6  ATP A 501      13.172  12.766   7.469  1.00  4.22     0.131 A 
HETATM   15  N7  ATP A 501      13.931  11.169   9.273  1.00  4.47    -0.346 N 
HETATM   16  C8  ATP A 501      13.804  11.279  10.604  1.00  4.18     0.188 A 
BRANCH  13  18
HETATM   18  N6  ATP A 501      13.464  12.053   6.375  1.00  5.27    -0.383 N 
ATOM     19  H62 ATP A 501      13.900  11.140   6.502  1.00  0.00     0.157 HD
ATOM     20  H61 ATP A 501      13.336  12.397   5.423  1.00  0.00     0.157 HD
ENDBRANCH  13  18
ENDBRANCH   5   6
BRANCH   4  21
HETATM   21  O2' ATP A 501      10.939  13.992  13.260  1.00  6.19    -0.388 OA
ATOM     22  H2' ATP A 501      10.954  14.676  12.601  1.00  0.00     0.210 HD
ENDBRANCH   4  21
BRANCH   3  23
HETATM   23  O3' ATP A 501      10.366  11.827  14.752  1.00  7.48    -0.390 OA
ATOM     24  H3' ATP A 501      10.352  11.143  15.411  1.00  0.00     0.210 HD
ENDBRANCH   3  23
BRANCH   1  25
HETATM   25  C5' ATP A 501      13.129  10.384  15.002  1.00  6.42     0.216 C 
BRANCH  25  26
HETATM   26  O5' ATP A 501      12.290   9.352  14.521  1.00  6.65    -0.287 OA
BRANCH  26  27
HETATM   27  PA  ATP A 501      12.864   8.016  13.890  1.00  6.54     0.417 P 
HETATM   28  O2A ATP A 501      14.307   7.820  14.286  1.00  7.34    -0.624 OA
HETATM   29  O1A ATP A 501      11.847   6.979  14.176  1.00  8.18    -0.624 OA
BRANCH  27  30
HETATM   30  O3A ATP A 501      12.909   8.352  12.314  1.00  6.94    -0.180 OA
BRANCH  30  31
HETATM   31  PB  ATP A 501      13.674   7.507  11.182  1.00  6.53     0.428 P 
HETATM   32  O1B ATP A 501      15.057   7.995  11.055  1.00  8.60    -0.624 OA
HETATM   33  O2B ATP A 501      13.502   6.050  11.461  1.00  5.78    -0.624 OA
BRANCH  31  34
HETATM   34  O3B ATP A 501      12.790   7.970   9.943  1.00  7.50    -0.173 OA
BRANCH  34  35
HETATM   35  PG  ATP A 501      12.927   7.433   8.433  1.00  8.07     0.431 P 
HETATM   36  O2G ATP A 501      12.485   8.586   7.563  1.00  9.86    -0.616 OA
HETATM   37  O3G ATP A 501      11.934   6.275   8.354  1.00  9.14    -0.616 OA
HETATM   38  O1G ATP A 501      14.365   7.013   8.248  1.00  6.46    -0.616 OA
ENDBRANCH  34  35
ENDBRANCH  31  34
ENDBRANCH  30  31
ENDBRANCH  27  30
ENDBRANCH  26  27
ENDBRANCH  25  26
ENDBRANCH   1  25
TORSDOF 11
ENDMDL
MODEL 9
REMARK minimizedAffinity -2.79946971
REMARK minimizedRMSD -1
REMARK  11 active torsions:
REMARK  status: ('A' for Active; 'I' for Inactive)
REMARK    1  A    between atoms: PG_1  and  O3B_8 
REMARK    2  A    between atoms: PB_5  and  O3A_12 
REMARK    3  A    between atoms: PB_5  and  O3B_8 
REMARK    4  A    between atoms: PA_9  and  O5'_13 
REMARK    5  A    between atoms: PA_9  and  O3A_12 
REMARK    6  A    between atoms: O5'_13  and  C5'_14 
REMARK    7  A    between atoms: C5'_14  and  C4'_15 
REMARK    8  A    between atoms: C3'_17  and  O3'_18 
REMARK    9  A    between atoms: C2'_20  and  O2'_21 
REMARK   10  A    between atoms: C1'_23  and  N9_24 
REMARK   11  A    between atoms: C6_29  and  N6_30 
ROOT
HETATM    1  C4' ATP A 501      14.377  11.152  10.100  1.00  5.20     0.180 C 
HETATM    2  O4' ATP A 501      14.021  10.610   8.837  1.00  4.96    -0.353 OA
HETATM    3  C3' ATP A 501      13.191  12.048  10.412  1.00  5.52     0.182 C 
HETATM    4  C2' ATP A 501      12.857  12.668   9.065  1.00  4.80     0.198 C 
HETATM    5  C1' ATP A 501      13.389  11.642   8.068  1.00  4.22     0.262 C 
ENDROOT
BRANCH   5   6
HETATM    6  N9  ATP A 501      12.387  10.963   7.234  1.00  3.78    -0.297 N 
HETATM    7  C4  ATP A 501      11.437  10.085   7.627  1.00  3.29     0.142 A 
HETATM    8  N3  ATP A 501      11.110   9.681   8.874  1.00  4.79    -0.336 N 
HETATM    9  C5  ATP A 501      10.798   9.667   6.454  1.00  3.65     0.122 A 
HETATM   10  C2  ATP A 501      10.072   8.826   8.934  1.00  4.70     0.183 A 
HETATM   12  N1  ATP A 501       9.411   8.347   7.844  1.00  4.95    -0.337 N 
HETATM   13  C6  ATP A 501       9.750   8.755   6.589  1.00  4.22     0.131 A 
HETATM   15  N7  ATP A 501      11.334  10.301   5.371  1.00  4.47    -0.346 N 
HETATM   16  C8  ATP A 501      12.312  11.070   5.871  1.00  4.18     0.188 A 
BRANCH  13  18
HETATM   18  N6  ATP A 501       9.116   8.193   5.554  1.00  5.27    -0.383 N 
ATOM     19  H62 ATP A 501       9.369   8.498   4.614  1.00  0.00     0.157 HD
ATOM     20  H61 ATP A 501       8.350   7.526   5.652  1.00  0.00     0.157 HD
ENDBRANCH  13  18
ENDBRANCH   5   6
BRANCH   4  21
HETATM   21  O2' ATP A 501      13.505  13.914   8.903  1.00  6.19    -0.388 OA
ATOM     22  H2' ATP A 501      13.296  14.301   8.061  1.00  0.00     0.210 HD
ENDBRANCH   4  21
BRANCH   3  23
HETATM   23  O3' ATP A 501      13.441  12.982  11.426  1.00  7.48    -0.390 OA
ATOM     24  H3' ATP A 501      13.650  12.595  12.268  1.00  0.00     0.210 HD
ENDBRANCH   3  23
BRANCH   1  25
HETATM   25  C5' ATP A 501      14.538  10.068  11.136  1.00  6.42     0.216 C 
BRANCH  25  26
HETATM   26  O5' ATP A 501      13.485  10.135  12.077  1.00  6.65    -0.287 OA
BRANCH  26  27
HETATM   27  PA  ATP A 501      13.742  10.115  13.641  1.00  6.54     0.417 P 
HETATM   28  O2A ATP A 501      14.471   8.857  14.043  1.00  7.34    -0.624 OA
HETATM   29  O1A ATP A 501      14.289  11.452  13.964  1.00  8.18    -0.624 OA
BRANCH  27  30
HETATM   30  O3A ATP A 501      12.257   9.945  14.247  1.00  6.94    -0.180 OA
BRANCH  30  31
HETATM   31  PB  ATP A 501      10.905  10.564  13.641  1.00  6.53     0.428 P 
HETATM   32  O1B ATP A 501      10.648   9.979  12.315  1.00  8.60    -0.624 OA
HETATM   33  O2B ATP A 501       9.814  10.437  14.652  1.00  5.78    -0.624 OA
BRANCH  31  34
HETATM   34  O3B ATP A 501      11.406  12.069  13.512  1.00  7.50    -0.173 OA
BRANCH  34  35
HETATM   35  PG  ATP A 501      10.466  13.375  13.462  1.00  8.07     0.431 P 
HETATM   36  O2G ATP A 501      10.090  13.643  14.900  1.00  9.86    -0.616 OA
HETATM   37  O3G ATP A 501       9.250  12.932  12.651  1.00  9.14    -0.616 OA
HETATM   38  O1G ATP A 501      11.271  14.467  12.802  1.00  6.46    -0.616 OA
ENDBRANCH  34  35
ENDBRANCH  31  34
ENDBRANCH  30  31
ENDBRANCH  27  30
ENDBRANCH  26  27
ENDBRANCH  25  26
ENDBRANCH   1  25
TORSDOF 11
ENDMDL
